<?xml version="1.0" encoding="UTF-8"?>

<!-- generated on 2026-03-07T10:39:27.845364-06:00 by Eclipse SUMO netconvert 1.26.0
<netconvertConfiguration xmlns:xsi="http://www.w3.org/2001/XMLSchema-instance" xsi:noNamespaceSchemaLocation="http://sumo.dlr.de/xsd/netconvertConfiguration.xsd">

    <input>
        <node-files value="nodes.xml"/>
        <edge-files value="edges.xml"/>
    </input>

    <output>
        <output-file value="grid_2x3_step1.net."/>
    </output>

</netconvertConfiguration>
-->

<net version="1.20" junctionCornerDetail="5" limitTurnSpeed="5.50" xmlns:xsi="http://www.w3.org/2001/XMLSchema-instance" xsi:noNamespaceSchemaLocation="http://sumo.dlr.de/xsd/net_file.xsd">

    <location netOffset="0.00,0.00" convBoundary="0.00,0.00,200.00,0.00" origBoundary="0.00,0.00,200.00,0.00" projParameter="!"/>

    <edge id="road" from="left" to="right" priority="-1">
        <lane id="road_0" index="0" speed="4.00" length="200.00" shape="0.00,-4.80 200.00,-4.80"/>
        <lane id="road_1" index="1" speed="4.00" length="200.00" shape="0.00,-1.60 200.00,-1.60"/>
    </edge>

    <junction id="left" type="dead_end" x="0.00" y="0.00" incLanes="" intLanes="" shape="0.00,0.00 0.00,-6.40"/>
    <junction id="right" type="dead_end" x="200.00" y="0.00" incLanes="road_0 road_1" intLanes="" shape="200.00,-6.40 200.00,0.00"/>

</net>
