<?xml version="1.0" encoding="UTF-8"?>

<!-- generated on 2026-03-07T10:42:42.213114-06:00 by Eclipse SUMO netconvert 1.26.0
<netconvertConfiguration xmlns:xsi="http://www.w3.org/2001/XMLSchema-instance" xsi:noNamespaceSchemaLocation="http://sumo.dlr.de/xsd/netconvertConfiguration.xsd">

    <input>
        <node-files value="nodes.xml"/>
        <edge-files value="edges.xml"/>
    </input>

    <output>
        <output-file value="grid_2x3_step1.net.xml"/>
    </output>

</netconvertConfiguration>
-->

<net version="1.20" junctionCornerDetail="5" limitTurnSpeed="5.50" xmlns:xsi="http://www.w3.org/2001/XMLSchema-instance" xsi:noNamespaceSchemaLocation="http://sumo.dlr.de/xsd/net_file.xsd">

    <location netOffset="50.00,100.00" convBoundary="0.00,0.00,200.00,150.00" origBoundary="-50.00,-100.00,150.00,50.00" projParameter="!"/>

    <edge id=":east_0_0" function="internal">
        <lane id=":east_0_0_0" index="0" speed="3.65" length="4.67" shape="200.00,98.40 201.20,99.20 201.60,100.00 201.20,100.80 200.00,101.60"/>
    </edge>
    <edge id=":east_1_0" function="internal">
        <lane id=":east_1_0_0" index="0" speed="3.65" length="4.67" shape="200.00,48.40 201.20,49.20 201.60,50.00 201.20,50.80 200.00,51.60"/>
    </edge>
    <edge id=":int_0_0_0" function="internal">
        <lane id=":int_0_0_0_0" index="0" speed="6.51" length="9.03" shape="45.20,110.40 44.85,107.95 43.80,106.20 42.05,105.15 39.60,104.80"/>
    </edge>
    <edge id=":int_0_0_1" function="internal">
        <lane id=":int_0_0_1_0" index="0" speed="13.89" length="20.80" shape="45.20,110.40 45.20,89.60"/>
        <lane id=":int_0_0_1_1" index="1" speed="13.89" length="20.80" shape="48.40,110.40 48.40,89.60"/>
    </edge>
    <edge id=":int_0_0_3" function="internal">
        <lane id=":int_0_0_3_0" index="0" speed="9.26" length="5.01" shape="48.40,110.40 49.11,105.44"/>
    </edge>
    <edge id=":int_0_0_4" function="internal">
        <lane id=":int_0_0_4_0" index="0" speed="3.65" length="1.44" shape="48.40,110.40 49.20,109.20"/>
    </edge>
    <edge id=":int_0_0_20" function="internal">
        <lane id=":int_0_0_20_0" index="0" speed="9.26" length="14.34" shape="49.11,105.44 49.15,105.15 51.40,101.40 55.15,99.15 60.40,98.40"/>
    </edge>
    <edge id=":int_0_0_21" function="internal">
        <lane id=":int_0_0_21_0" index="0" speed="3.65" length="3.23" shape="49.20,109.20 50.00,108.80 50.80,109.20 51.60,110.40"/>
    </edge>
    <edge id=":int_0_0_5" function="internal">
        <lane id=":int_0_0_5_0" index="0" speed="6.51" length="9.03" shape="60.40,104.80 57.95,105.15 56.20,106.20 55.15,107.95 54.80,110.40"/>
    </edge>
    <edge id=":int_0_0_6" function="internal">
        <lane id=":int_0_0_6_0" index="0" speed="13.89" length="20.80" shape="60.40,104.80 39.60,104.80"/>
        <lane id=":int_0_0_6_1" index="1" speed="13.89" length="20.80" shape="60.40,101.60 39.60,101.60"/>
    </edge>
    <edge id=":int_0_0_8" function="internal">
        <lane id=":int_0_0_8_0" index="0" speed="9.26" length="19.35" shape="60.40,101.60 55.15,100.85 51.40,98.60 49.15,94.85 48.40,89.60"/>
    </edge>
    <edge id=":int_0_0_9" function="internal">
        <lane id=":int_0_0_9_0" index="0" speed="3.65" length="4.67" shape="60.40,101.60 59.20,100.80 58.80,100.00 59.20,99.20 60.40,98.40"/>
    </edge>
    <edge id=":int_0_0_10" function="internal">
        <lane id=":int_0_0_10_0" index="0" speed="6.51" length="9.03" shape="54.80,89.60 55.15,92.05 56.20,93.80 57.95,94.85 60.40,95.20"/>
    </edge>
    <edge id=":int_0_0_11" function="internal">
        <lane id=":int_0_0_11_0" index="0" speed="13.89" length="20.80" shape="54.80,89.60 54.80,110.40"/>
        <lane id=":int_0_0_11_1" index="1" speed="13.89" length="20.80" shape="51.60,89.60 51.60,110.40"/>
    </edge>
    <edge id=":int_0_0_13" function="internal">
        <lane id=":int_0_0_13_0" index="0" speed="9.26" length="5.01" shape="51.60,89.60 50.89,94.56"/>
    </edge>
    <edge id=":int_0_0_14" function="internal">
        <lane id=":int_0_0_14_0" index="0" speed="3.65" length="1.44" shape="51.60,89.60 50.80,90.80"/>
    </edge>
    <edge id=":int_0_0_22" function="internal">
        <lane id=":int_0_0_22_0" index="0" speed="9.26" length="14.34" shape="50.89,94.56 50.85,94.85 48.60,98.60 44.85,100.85 39.60,101.60"/>
    </edge>
    <edge id=":int_0_0_23" function="internal">
        <lane id=":int_0_0_23_0" index="0" speed="3.65" length="3.23" shape="50.80,90.80 50.00,91.20 49.20,90.80 48.40,89.60"/>
    </edge>
    <edge id=":int_0_0_15" function="internal">
        <lane id=":int_0_0_15_0" index="0" speed="6.51" length="9.03" shape="39.60,95.20 42.05,94.85 43.80,93.80 44.85,92.05 45.20,89.60"/>
    </edge>
    <edge id=":int_0_0_16" function="internal">
        <lane id=":int_0_0_16_0" index="0" speed="13.89" length="20.80" shape="39.60,95.20 60.40,95.20"/>
        <lane id=":int_0_0_16_1" index="1" speed="13.89" length="20.80" shape="39.60,98.40 60.40,98.40"/>
    </edge>
    <edge id=":int_0_0_18" function="internal">
        <lane id=":int_0_0_18_0" index="0" speed="9.26" length="19.35" shape="39.60,98.40 44.85,99.15 48.60,101.40 50.85,105.15 51.60,110.40"/>
    </edge>
    <edge id=":int_0_0_19" function="internal">
        <lane id=":int_0_0_19_0" index="0" speed="3.65" length="4.67" shape="39.60,98.40 40.80,99.20 41.20,100.00 40.80,100.80 39.60,101.60"/>
    </edge>
    <edge id=":int_0_1_0" function="internal">
        <lane id=":int_0_1_0_0" index="0" speed="6.51" length="9.03" shape="95.20,110.40 94.85,107.95 93.80,106.20 92.05,105.15 89.60,104.80"/>
    </edge>
    <edge id=":int_0_1_1" function="internal">
        <lane id=":int_0_1_1_0" index="0" speed="13.89" length="20.80" shape="95.20,110.40 95.20,89.60"/>
        <lane id=":int_0_1_1_1" index="1" speed="13.89" length="20.80" shape="98.40,110.40 98.40,89.60"/>
    </edge>
    <edge id=":int_0_1_3" function="internal">
        <lane id=":int_0_1_3_0" index="0" speed="9.26" length="5.01" shape="98.40,110.40 99.11,105.44"/>
    </edge>
    <edge id=":int_0_1_4" function="internal">
        <lane id=":int_0_1_4_0" index="0" speed="3.65" length="1.44" shape="98.40,110.40 99.20,109.20"/>
    </edge>
    <edge id=":int_0_1_20" function="internal">
        <lane id=":int_0_1_20_0" index="0" speed="9.26" length="14.34" shape="99.11,105.44 99.15,105.15 101.40,101.40 105.15,99.15 110.40,98.40"/>
    </edge>
    <edge id=":int_0_1_21" function="internal">
        <lane id=":int_0_1_21_0" index="0" speed="3.65" length="3.23" shape="99.20,109.20 100.00,108.80 100.80,109.20 101.60,110.40"/>
    </edge>
    <edge id=":int_0_1_5" function="internal">
        <lane id=":int_0_1_5_0" index="0" speed="6.51" length="9.03" shape="110.40,104.80 107.95,105.15 106.20,106.20 105.15,107.95 104.80,110.40"/>
    </edge>
    <edge id=":int_0_1_6" function="internal">
        <lane id=":int_0_1_6_0" index="0" speed="13.89" length="20.80" shape="110.40,104.80 89.60,104.80"/>
        <lane id=":int_0_1_6_1" index="1" speed="13.89" length="20.80" shape="110.40,101.60 89.60,101.60"/>
    </edge>
    <edge id=":int_0_1_8" function="internal">
        <lane id=":int_0_1_8_0" index="0" speed="9.26" length="19.35" shape="110.40,101.60 105.15,100.85 101.40,98.60 99.15,94.85 98.40,89.60"/>
    </edge>
    <edge id=":int_0_1_9" function="internal">
        <lane id=":int_0_1_9_0" index="0" speed="3.65" length="4.67" shape="110.40,101.60 109.20,100.80 108.80,100.00 109.20,99.20 110.40,98.40"/>
    </edge>
    <edge id=":int_0_1_10" function="internal">
        <lane id=":int_0_1_10_0" index="0" speed="6.51" length="9.03" shape="104.80,89.60 105.15,92.05 106.20,93.80 107.95,94.85 110.40,95.20"/>
    </edge>
    <edge id=":int_0_1_11" function="internal">
        <lane id=":int_0_1_11_0" index="0" speed="13.89" length="20.80" shape="104.80,89.60 104.80,110.40"/>
        <lane id=":int_0_1_11_1" index="1" speed="13.89" length="20.80" shape="101.60,89.60 101.60,110.40"/>
    </edge>
    <edge id=":int_0_1_13" function="internal">
        <lane id=":int_0_1_13_0" index="0" speed="9.26" length="5.01" shape="101.60,89.60 100.89,94.56"/>
    </edge>
    <edge id=":int_0_1_14" function="internal">
        <lane id=":int_0_1_14_0" index="0" speed="3.65" length="1.44" shape="101.60,89.60 100.80,90.80"/>
    </edge>
    <edge id=":int_0_1_22" function="internal">
        <lane id=":int_0_1_22_0" index="0" speed="9.26" length="14.34" shape="100.89,94.56 100.85,94.85 98.60,98.60 94.85,100.85 89.60,101.60"/>
    </edge>
    <edge id=":int_0_1_23" function="internal">
        <lane id=":int_0_1_23_0" index="0" speed="3.65" length="3.23" shape="100.80,90.80 100.00,91.20 99.20,90.80 98.40,89.60"/>
    </edge>
    <edge id=":int_0_1_15" function="internal">
        <lane id=":int_0_1_15_0" index="0" speed="6.51" length="9.03" shape="89.60,95.20 92.05,94.85 93.80,93.80 94.85,92.05 95.20,89.60"/>
    </edge>
    <edge id=":int_0_1_16" function="internal">
        <lane id=":int_0_1_16_0" index="0" speed="13.89" length="20.80" shape="89.60,95.20 110.40,95.20"/>
        <lane id=":int_0_1_16_1" index="1" speed="13.89" length="20.80" shape="89.60,98.40 110.40,98.40"/>
    </edge>
    <edge id=":int_0_1_18" function="internal">
        <lane id=":int_0_1_18_0" index="0" speed="9.26" length="19.35" shape="89.60,98.40 94.85,99.15 98.60,101.40 100.85,105.15 101.60,110.40"/>
    </edge>
    <edge id=":int_0_1_19" function="internal">
        <lane id=":int_0_1_19_0" index="0" speed="3.65" length="4.67" shape="89.60,98.40 90.80,99.20 91.20,100.00 90.80,100.80 89.60,101.60"/>
    </edge>
    <edge id=":int_0_2_0" function="internal">
        <lane id=":int_0_2_0_0" index="0" speed="6.51" length="9.03" shape="145.20,110.40 144.85,107.95 143.80,106.20 142.05,105.15 139.60,104.80"/>
    </edge>
    <edge id=":int_0_2_1" function="internal">
        <lane id=":int_0_2_1_0" index="0" speed="13.89" length="20.80" shape="145.20,110.40 145.20,89.60"/>
        <lane id=":int_0_2_1_1" index="1" speed="13.89" length="20.80" shape="148.40,110.40 148.40,89.60"/>
    </edge>
    <edge id=":int_0_2_3" function="internal">
        <lane id=":int_0_2_3_0" index="0" speed="9.26" length="5.01" shape="148.40,110.40 149.11,105.44"/>
    </edge>
    <edge id=":int_0_2_4" function="internal">
        <lane id=":int_0_2_4_0" index="0" speed="3.65" length="1.44" shape="148.40,110.40 149.20,109.20"/>
    </edge>
    <edge id=":int_0_2_20" function="internal">
        <lane id=":int_0_2_20_0" index="0" speed="9.26" length="14.34" shape="149.11,105.44 149.15,105.15 151.40,101.40 155.15,99.15 160.40,98.40"/>
    </edge>
    <edge id=":int_0_2_21" function="internal">
        <lane id=":int_0_2_21_0" index="0" speed="3.65" length="3.23" shape="149.20,109.20 150.00,108.80 150.80,109.20 151.60,110.40"/>
    </edge>
    <edge id=":int_0_2_5" function="internal">
        <lane id=":int_0_2_5_0" index="0" speed="6.51" length="9.03" shape="160.40,104.80 157.95,105.15 156.20,106.20 155.15,107.95 154.80,110.40"/>
    </edge>
    <edge id=":int_0_2_6" function="internal">
        <lane id=":int_0_2_6_0" index="0" speed="13.89" length="20.80" shape="160.40,104.80 139.60,104.80"/>
        <lane id=":int_0_2_6_1" index="1" speed="13.89" length="20.80" shape="160.40,101.60 139.60,101.60"/>
    </edge>
    <edge id=":int_0_2_8" function="internal">
        <lane id=":int_0_2_8_0" index="0" speed="9.26" length="19.35" shape="160.40,101.60 155.15,100.85 151.40,98.60 149.15,94.85 148.40,89.60"/>
    </edge>
    <edge id=":int_0_2_9" function="internal">
        <lane id=":int_0_2_9_0" index="0" speed="3.65" length="4.67" shape="160.40,101.60 159.20,100.80 158.80,100.00 159.20,99.20 160.40,98.40"/>
    </edge>
    <edge id=":int_0_2_10" function="internal">
        <lane id=":int_0_2_10_0" index="0" speed="6.51" length="9.03" shape="154.80,89.60 155.15,92.05 156.20,93.80 157.95,94.85 160.40,95.20"/>
    </edge>
    <edge id=":int_0_2_11" function="internal">
        <lane id=":int_0_2_11_0" index="0" speed="13.89" length="20.80" shape="154.80,89.60 154.80,110.40"/>
        <lane id=":int_0_2_11_1" index="1" speed="13.89" length="20.80" shape="151.60,89.60 151.60,110.40"/>
    </edge>
    <edge id=":int_0_2_13" function="internal">
        <lane id=":int_0_2_13_0" index="0" speed="9.26" length="5.01" shape="151.60,89.60 150.89,94.56"/>
    </edge>
    <edge id=":int_0_2_14" function="internal">
        <lane id=":int_0_2_14_0" index="0" speed="3.65" length="1.44" shape="151.60,89.60 150.80,90.80"/>
    </edge>
    <edge id=":int_0_2_22" function="internal">
        <lane id=":int_0_2_22_0" index="0" speed="9.26" length="14.34" shape="150.89,94.56 150.85,94.85 148.60,98.60 144.85,100.85 139.60,101.60"/>
    </edge>
    <edge id=":int_0_2_23" function="internal">
        <lane id=":int_0_2_23_0" index="0" speed="3.65" length="3.23" shape="150.80,90.80 150.00,91.20 149.20,90.80 148.40,89.60"/>
    </edge>
    <edge id=":int_0_2_15" function="internal">
        <lane id=":int_0_2_15_0" index="0" speed="6.51" length="9.03" shape="139.60,95.20 142.05,94.85 143.80,93.80 144.85,92.05 145.20,89.60"/>
    </edge>
    <edge id=":int_0_2_16" function="internal">
        <lane id=":int_0_2_16_0" index="0" speed="13.89" length="20.80" shape="139.60,95.20 160.40,95.20"/>
        <lane id=":int_0_2_16_1" index="1" speed="13.89" length="20.80" shape="139.60,98.40 160.40,98.40"/>
    </edge>
    <edge id=":int_0_2_18" function="internal">
        <lane id=":int_0_2_18_0" index="0" speed="9.26" length="19.35" shape="139.60,98.40 144.85,99.15 148.60,101.40 150.85,105.15 151.60,110.40"/>
    </edge>
    <edge id=":int_0_2_19" function="internal">
        <lane id=":int_0_2_19_0" index="0" speed="3.65" length="4.67" shape="139.60,98.40 140.80,99.20 141.20,100.00 140.80,100.80 139.60,101.60"/>
    </edge>
    <edge id=":int_1_0_0" function="internal">
        <lane id=":int_1_0_0_0" index="0" speed="6.51" length="9.03" shape="45.20,60.40 44.85,57.95 43.80,56.20 42.05,55.15 39.60,54.80"/>
    </edge>
    <edge id=":int_1_0_1" function="internal">
        <lane id=":int_1_0_1_0" index="0" speed="13.89" length="20.80" shape="45.20,60.40 45.20,39.60"/>
        <lane id=":int_1_0_1_1" index="1" speed="13.89" length="20.80" shape="48.40,60.40 48.40,39.60"/>
    </edge>
    <edge id=":int_1_0_3" function="internal">
        <lane id=":int_1_0_3_0" index="0" speed="9.26" length="5.01" shape="48.40,60.40 49.11,55.44"/>
    </edge>
    <edge id=":int_1_0_4" function="internal">
        <lane id=":int_1_0_4_0" index="0" speed="3.65" length="1.44" shape="48.40,60.40 49.20,59.20"/>
    </edge>
    <edge id=":int_1_0_20" function="internal">
        <lane id=":int_1_0_20_0" index="0" speed="9.26" length="14.34" shape="49.11,55.44 49.15,55.15 51.40,51.40 55.15,49.15 60.40,48.40"/>
    </edge>
    <edge id=":int_1_0_21" function="internal">
        <lane id=":int_1_0_21_0" index="0" speed="3.65" length="3.23" shape="49.20,59.20 50.00,58.80 50.80,59.20 51.60,60.40"/>
    </edge>
    <edge id=":int_1_0_5" function="internal">
        <lane id=":int_1_0_5_0" index="0" speed="6.51" length="9.03" shape="60.40,54.80 57.95,55.15 56.20,56.20 55.15,57.95 54.80,60.40"/>
    </edge>
    <edge id=":int_1_0_6" function="internal">
        <lane id=":int_1_0_6_0" index="0" speed="13.89" length="20.80" shape="60.40,54.80 39.60,54.80"/>
        <lane id=":int_1_0_6_1" index="1" speed="13.89" length="20.80" shape="60.40,51.60 39.60,51.60"/>
    </edge>
    <edge id=":int_1_0_8" function="internal">
        <lane id=":int_1_0_8_0" index="0" speed="9.26" length="19.35" shape="60.40,51.60 55.15,50.85 51.40,48.60 49.15,44.85 48.40,39.60"/>
    </edge>
    <edge id=":int_1_0_9" function="internal">
        <lane id=":int_1_0_9_0" index="0" speed="3.65" length="4.67" shape="60.40,51.60 59.20,50.80 58.80,50.00 59.20,49.20 60.40,48.40"/>
    </edge>
    <edge id=":int_1_0_10" function="internal">
        <lane id=":int_1_0_10_0" index="0" speed="6.51" length="9.03" shape="54.80,39.60 55.15,42.05 56.20,43.80 57.95,44.85 60.40,45.20"/>
    </edge>
    <edge id=":int_1_0_11" function="internal">
        <lane id=":int_1_0_11_0" index="0" speed="13.89" length="20.80" shape="54.80,39.60 54.80,60.40"/>
        <lane id=":int_1_0_11_1" index="1" speed="13.89" length="20.80" shape="51.60,39.60 51.60,60.40"/>
    </edge>
    <edge id=":int_1_0_13" function="internal">
        <lane id=":int_1_0_13_0" index="0" speed="9.26" length="5.01" shape="51.60,39.60 50.89,44.56"/>
    </edge>
    <edge id=":int_1_0_14" function="internal">
        <lane id=":int_1_0_14_0" index="0" speed="3.65" length="1.44" shape="51.60,39.60 50.80,40.80"/>
    </edge>
    <edge id=":int_1_0_22" function="internal">
        <lane id=":int_1_0_22_0" index="0" speed="9.26" length="14.34" shape="50.89,44.56 50.85,44.85 48.60,48.60 44.85,50.85 39.60,51.60"/>
    </edge>
    <edge id=":int_1_0_23" function="internal">
        <lane id=":int_1_0_23_0" index="0" speed="3.65" length="3.23" shape="50.80,40.80 50.00,41.20 49.20,40.80 48.40,39.60"/>
    </edge>
    <edge id=":int_1_0_15" function="internal">
        <lane id=":int_1_0_15_0" index="0" speed="6.51" length="9.03" shape="39.60,45.20 42.05,44.85 43.80,43.80 44.85,42.05 45.20,39.60"/>
    </edge>
    <edge id=":int_1_0_16" function="internal">
        <lane id=":int_1_0_16_0" index="0" speed="13.89" length="20.80" shape="39.60,45.20 60.40,45.20"/>
        <lane id=":int_1_0_16_1" index="1" speed="13.89" length="20.80" shape="39.60,48.40 60.40,48.40"/>
    </edge>
    <edge id=":int_1_0_18" function="internal">
        <lane id=":int_1_0_18_0" index="0" speed="9.26" length="19.35" shape="39.60,48.40 44.85,49.15 48.60,51.40 50.85,55.15 51.60,60.40"/>
    </edge>
    <edge id=":int_1_0_19" function="internal">
        <lane id=":int_1_0_19_0" index="0" speed="3.65" length="4.67" shape="39.60,48.40 40.80,49.20 41.20,50.00 40.80,50.80 39.60,51.60"/>
    </edge>
    <edge id=":int_1_1_0" function="internal">
        <lane id=":int_1_1_0_0" index="0" speed="6.51" length="9.03" shape="95.20,60.40 94.85,57.95 93.80,56.20 92.05,55.15 89.60,54.80"/>
    </edge>
    <edge id=":int_1_1_1" function="internal">
        <lane id=":int_1_1_1_0" index="0" speed="13.89" length="20.80" shape="95.20,60.40 95.20,39.60"/>
        <lane id=":int_1_1_1_1" index="1" speed="13.89" length="20.80" shape="98.40,60.40 98.40,39.60"/>
    </edge>
    <edge id=":int_1_1_3" function="internal">
        <lane id=":int_1_1_3_0" index="0" speed="9.26" length="5.01" shape="98.40,60.40 99.11,55.44"/>
    </edge>
    <edge id=":int_1_1_4" function="internal">
        <lane id=":int_1_1_4_0" index="0" speed="3.65" length="1.44" shape="98.40,60.40 99.20,59.20"/>
    </edge>
    <edge id=":int_1_1_20" function="internal">
        <lane id=":int_1_1_20_0" index="0" speed="9.26" length="14.34" shape="99.11,55.44 99.15,55.15 101.40,51.40 105.15,49.15 110.40,48.40"/>
    </edge>
    <edge id=":int_1_1_21" function="internal">
        <lane id=":int_1_1_21_0" index="0" speed="3.65" length="3.23" shape="99.20,59.20 100.00,58.80 100.80,59.20 101.60,60.40"/>
    </edge>
    <edge id=":int_1_1_5" function="internal">
        <lane id=":int_1_1_5_0" index="0" speed="6.51" length="9.03" shape="110.40,54.80 107.95,55.15 106.20,56.20 105.15,57.95 104.80,60.40"/>
    </edge>
    <edge id=":int_1_1_6" function="internal">
        <lane id=":int_1_1_6_0" index="0" speed="13.89" length="20.80" shape="110.40,54.80 89.60,54.80"/>
        <lane id=":int_1_1_6_1" index="1" speed="13.89" length="20.80" shape="110.40,51.60 89.60,51.60"/>
    </edge>
    <edge id=":int_1_1_8" function="internal">
        <lane id=":int_1_1_8_0" index="0" speed="9.26" length="19.35" shape="110.40,51.60 105.15,50.85 101.40,48.60 99.15,44.85 98.40,39.60"/>
    </edge>
    <edge id=":int_1_1_9" function="internal">
        <lane id=":int_1_1_9_0" index="0" speed="3.65" length="4.67" shape="110.40,51.60 109.20,50.80 108.80,50.00 109.20,49.20 110.40,48.40"/>
    </edge>
    <edge id=":int_1_1_10" function="internal">
        <lane id=":int_1_1_10_0" index="0" speed="6.51" length="9.03" shape="104.80,39.60 105.15,42.05 106.20,43.80 107.95,44.85 110.40,45.20"/>
    </edge>
    <edge id=":int_1_1_11" function="internal">
        <lane id=":int_1_1_11_0" index="0" speed="13.89" length="20.80" shape="104.80,39.60 104.80,60.40"/>
        <lane id=":int_1_1_11_1" index="1" speed="13.89" length="20.80" shape="101.60,39.60 101.60,60.40"/>
    </edge>
    <edge id=":int_1_1_13" function="internal">
        <lane id=":int_1_1_13_0" index="0" speed="9.26" length="5.01" shape="101.60,39.60 100.89,44.56"/>
    </edge>
    <edge id=":int_1_1_14" function="internal">
        <lane id=":int_1_1_14_0" index="0" speed="3.65" length="1.44" shape="101.60,39.60 100.80,40.80"/>
    </edge>
    <edge id=":int_1_1_22" function="internal">
        <lane id=":int_1_1_22_0" index="0" speed="9.26" length="14.34" shape="100.89,44.56 100.85,44.85 98.60,48.60 94.85,50.85 89.60,51.60"/>
    </edge>
    <edge id=":int_1_1_23" function="internal">
        <lane id=":int_1_1_23_0" index="0" speed="3.65" length="3.23" shape="100.80,40.80 100.00,41.20 99.20,40.80 98.40,39.60"/>
    </edge>
    <edge id=":int_1_1_15" function="internal">
        <lane id=":int_1_1_15_0" index="0" speed="6.51" length="9.03" shape="89.60,45.20 92.05,44.85 93.80,43.80 94.85,42.05 95.20,39.60"/>
    </edge>
    <edge id=":int_1_1_16" function="internal">
        <lane id=":int_1_1_16_0" index="0" speed="13.89" length="20.80" shape="89.60,45.20 110.40,45.20"/>
        <lane id=":int_1_1_16_1" index="1" speed="13.89" length="20.80" shape="89.60,48.40 110.40,48.40"/>
    </edge>
    <edge id=":int_1_1_18" function="internal">
        <lane id=":int_1_1_18_0" index="0" speed="9.26" length="19.35" shape="89.60,48.40 94.85,49.15 98.60,51.40 100.85,55.15 101.60,60.40"/>
    </edge>
    <edge id=":int_1_1_19" function="internal">
        <lane id=":int_1_1_19_0" index="0" speed="3.65" length="4.67" shape="89.60,48.40 90.80,49.20 91.20,50.00 90.80,50.80 89.60,51.60"/>
    </edge>
    <edge id=":int_1_2_0" function="internal">
        <lane id=":int_1_2_0_0" index="0" speed="6.51" length="9.03" shape="145.20,60.40 144.85,57.95 143.80,56.20 142.05,55.15 139.60,54.80"/>
    </edge>
    <edge id=":int_1_2_1" function="internal">
        <lane id=":int_1_2_1_0" index="0" speed="13.89" length="20.80" shape="145.20,60.40 145.20,39.60"/>
        <lane id=":int_1_2_1_1" index="1" speed="13.89" length="20.80" shape="148.40,60.40 148.40,39.60"/>
    </edge>
    <edge id=":int_1_2_3" function="internal">
        <lane id=":int_1_2_3_0" index="0" speed="9.26" length="5.01" shape="148.40,60.40 149.11,55.44"/>
    </edge>
    <edge id=":int_1_2_4" function="internal">
        <lane id=":int_1_2_4_0" index="0" speed="3.65" length="1.44" shape="148.40,60.40 149.20,59.20"/>
    </edge>
    <edge id=":int_1_2_20" function="internal">
        <lane id=":int_1_2_20_0" index="0" speed="9.26" length="14.34" shape="149.11,55.44 149.15,55.15 151.40,51.40 155.15,49.15 160.40,48.40"/>
    </edge>
    <edge id=":int_1_2_21" function="internal">
        <lane id=":int_1_2_21_0" index="0" speed="3.65" length="3.23" shape="149.20,59.20 150.00,58.80 150.80,59.20 151.60,60.40"/>
    </edge>
    <edge id=":int_1_2_5" function="internal">
        <lane id=":int_1_2_5_0" index="0" speed="6.51" length="9.03" shape="160.40,54.80 157.95,55.15 156.20,56.20 155.15,57.95 154.80,60.40"/>
    </edge>
    <edge id=":int_1_2_6" function="internal">
        <lane id=":int_1_2_6_0" index="0" speed="13.89" length="20.80" shape="160.40,54.80 139.60,54.80"/>
        <lane id=":int_1_2_6_1" index="1" speed="13.89" length="20.80" shape="160.40,51.60 139.60,51.60"/>
    </edge>
    <edge id=":int_1_2_8" function="internal">
        <lane id=":int_1_2_8_0" index="0" speed="9.26" length="19.35" shape="160.40,51.60 155.15,50.85 151.40,48.60 149.15,44.85 148.40,39.60"/>
    </edge>
    <edge id=":int_1_2_9" function="internal">
        <lane id=":int_1_2_9_0" index="0" speed="3.65" length="4.67" shape="160.40,51.60 159.20,50.80 158.80,50.00 159.20,49.20 160.40,48.40"/>
    </edge>
    <edge id=":int_1_2_10" function="internal">
        <lane id=":int_1_2_10_0" index="0" speed="6.51" length="9.03" shape="154.80,39.60 155.15,42.05 156.20,43.80 157.95,44.85 160.40,45.20"/>
    </edge>
    <edge id=":int_1_2_11" function="internal">
        <lane id=":int_1_2_11_0" index="0" speed="13.89" length="20.80" shape="154.80,39.60 154.80,60.40"/>
        <lane id=":int_1_2_11_1" index="1" speed="13.89" length="20.80" shape="151.60,39.60 151.60,60.40"/>
    </edge>
    <edge id=":int_1_2_13" function="internal">
        <lane id=":int_1_2_13_0" index="0" speed="9.26" length="5.01" shape="151.60,39.60 150.89,44.56"/>
    </edge>
    <edge id=":int_1_2_14" function="internal">
        <lane id=":int_1_2_14_0" index="0" speed="3.65" length="1.44" shape="151.60,39.60 150.80,40.80"/>
    </edge>
    <edge id=":int_1_2_22" function="internal">
        <lane id=":int_1_2_22_0" index="0" speed="9.26" length="14.34" shape="150.89,44.56 150.85,44.85 148.60,48.60 144.85,50.85 139.60,51.60"/>
    </edge>
    <edge id=":int_1_2_23" function="internal">
        <lane id=":int_1_2_23_0" index="0" speed="3.65" length="3.23" shape="150.80,40.80 150.00,41.20 149.20,40.80 148.40,39.60"/>
    </edge>
    <edge id=":int_1_2_15" function="internal">
        <lane id=":int_1_2_15_0" index="0" speed="6.51" length="9.03" shape="139.60,45.20 142.05,44.85 143.80,43.80 144.85,42.05 145.20,39.60"/>
    </edge>
    <edge id=":int_1_2_16" function="internal">
        <lane id=":int_1_2_16_0" index="0" speed="13.89" length="20.80" shape="139.60,45.20 160.40,45.20"/>
        <lane id=":int_1_2_16_1" index="1" speed="13.89" length="20.80" shape="139.60,48.40 160.40,48.40"/>
    </edge>
    <edge id=":int_1_2_18" function="internal">
        <lane id=":int_1_2_18_0" index="0" speed="9.26" length="19.35" shape="139.60,48.40 144.85,49.15 148.60,51.40 150.85,55.15 151.60,60.40"/>
    </edge>
    <edge id=":int_1_2_19" function="internal">
        <lane id=":int_1_2_19_0" index="0" speed="3.65" length="4.67" shape="139.60,48.40 140.80,49.20 141.20,50.00 140.80,50.80 139.60,51.60"/>
    </edge>
    <edge id=":north_0_0" function="internal">
        <lane id=":north_0_0_0" index="0" speed="3.65" length="4.67" shape="51.60,150.00 50.80,151.20 50.00,151.60 49.20,151.20 48.40,150.00"/>
    </edge>
    <edge id=":north_1_0" function="internal">
        <lane id=":north_1_0_0" index="0" speed="3.65" length="4.67" shape="101.60,150.00 100.80,151.20 100.00,151.60 99.20,151.20 98.40,150.00"/>
    </edge>
    <edge id=":north_2_0" function="internal">
        <lane id=":north_2_0_0" index="0" speed="3.65" length="4.67" shape="151.60,150.00 150.80,151.20 150.00,151.60 149.20,151.20 148.40,150.00"/>
    </edge>
    <edge id=":south_0_0" function="internal">
        <lane id=":south_0_0_0" index="0" speed="3.65" length="4.67" shape="48.40,0.00 49.20,-1.20 50.00,-1.60 50.80,-1.20 51.60,0.00"/>
    </edge>
    <edge id=":south_1_0" function="internal">
        <lane id=":south_1_0_0" index="0" speed="3.65" length="4.67" shape="98.40,0.00 99.20,-1.20 100.00,-1.60 100.80,-1.20 101.60,0.00"/>
    </edge>
    <edge id=":south_2_0" function="internal">
        <lane id=":south_2_0_0" index="0" speed="3.65" length="4.67" shape="148.40,0.00 149.20,-1.20 150.00,-1.60 150.80,-1.20 151.60,0.00"/>
    </edge>
    <edge id=":west_0_0" function="internal">
        <lane id=":west_0_0_0" index="0" speed="3.65" length="4.67" shape="0.00,101.60 -1.20,100.80 -1.60,100.00 -1.20,99.20 0.00,98.40"/>
    </edge>
    <edge id=":west_1_0" function="internal">
        <lane id=":west_1_0_0" index="0" speed="3.65" length="4.67" shape="0.00,51.60 -1.20,50.80 -1.60,50.00 -1.20,49.20 0.00,48.40"/>
    </edge>

    <edge id="east_0_in" from="east_0" to="int_0_2" priority="-1">
        <lane id="east_0_in_0" index="0" speed="13.89" length="39.60" shape="200.00,104.80 160.40,104.80"/>
        <lane id="east_0_in_1" index="1" speed="13.89" length="39.60" shape="200.00,101.60 160.40,101.60"/>
    </edge>
    <edge id="east_0_out" from="int_0_2" to="east_0" priority="-1">
        <lane id="east_0_out_0" index="0" speed="13.89" length="39.60" shape="160.40,95.20 200.00,95.20"/>
        <lane id="east_0_out_1" index="1" speed="13.89" length="39.60" shape="160.40,98.40 200.00,98.40"/>
    </edge>
    <edge id="east_1_in" from="east_1" to="int_1_2" priority="-1">
        <lane id="east_1_in_0" index="0" speed="13.89" length="39.60" shape="200.00,54.80 160.40,54.80"/>
        <lane id="east_1_in_1" index="1" speed="13.89" length="39.60" shape="200.00,51.60 160.40,51.60"/>
    </edge>
    <edge id="east_1_out" from="int_1_2" to="east_1" priority="-1">
        <lane id="east_1_out_0" index="0" speed="13.89" length="39.60" shape="160.40,45.20 200.00,45.20"/>
        <lane id="east_1_out_1" index="1" speed="13.89" length="39.60" shape="160.40,48.40 200.00,48.40"/>
    </edge>
    <edge id="h_0_0_to_0_1" from="int_0_0" to="int_0_1" priority="-1">
        <lane id="h_0_0_to_0_1_0" index="0" speed="13.89" length="29.20" shape="60.40,95.20 89.60,95.20"/>
        <lane id="h_0_0_to_0_1_1" index="1" speed="13.89" length="29.20" shape="60.40,98.40 89.60,98.40"/>
    </edge>
    <edge id="h_0_1_to_0_0" from="int_0_1" to="int_0_0" priority="-1">
        <lane id="h_0_1_to_0_0_0" index="0" speed="13.89" length="29.20" shape="89.60,104.80 60.40,104.80"/>
        <lane id="h_0_1_to_0_0_1" index="1" speed="13.89" length="29.20" shape="89.60,101.60 60.40,101.60"/>
    </edge>
    <edge id="h_0_1_to_0_2" from="int_0_1" to="int_0_2" priority="-1">
        <lane id="h_0_1_to_0_2_0" index="0" speed="13.89" length="29.20" shape="110.40,95.20 139.60,95.20"/>
        <lane id="h_0_1_to_0_2_1" index="1" speed="13.89" length="29.20" shape="110.40,98.40 139.60,98.40"/>
    </edge>