<?xml version="1.0" encoding="UTF-8"?>

<!-- generated on 2026-03-07T11:06:07.096070-06:00 by Eclipse SUMO netconvert 1.26.0
<netconvertConfiguration xmlns:xsi="http://www.w3.org/2001/XMLSchema-instance" xsi:noNamespaceSchemaLocation="http://sumo.dlr.de/xsd/netconvertConfiguration.xsd">

    <input>
        <node-files value="nodes.xml"/>
        <edge-files value="edges.xml"/>
    </input>

    <output>
        <output-file value="intersection.net.xml"/>
    </output>

</netconvertConfiguration>
-->

<net version="1.20" junctionCornerDetail="5" limitTurnSpeed="5.50" xmlns:xsi="http://www.w3.org/2001/XMLSchema-instance" xsi:noNamespaceSchemaLocation="http://sumo.dlr.de/xsd/net_file.xsd">

    <location netOffset="80.00,80.00" convBoundary="0.00,0.00,160.00,160.00" origBoundary="-80.00,-80.00,80.00,80.00" projParameter="!"/>

    <edge id=":center_0" function="internal">
        <lane id=":center_0_0" index="0" speed="6.51" length="9.03" shape="75.20,90.40 74.85,87.95 73.80,86.20 72.05,85.15 69.60,84.80"/>
    </edge>
    <edge id=":center_1" function="internal">
        <lane id=":center_1_0" index="0" speed="13.89" length="20.80" shape="75.20,90.40 75.20,69.60"/>
        <lane id=":center_1_1" index="1" speed="13.89" length="20.80" shape="78.40,90.40 78.40,69.60"/>
    </edge>
    <edge id=":center_3" function="internal">
        <lane id=":center_3_0" index="0" speed="9.26" length="5.01" shape="78.40,90.40 79.11,85.44"/>
    </edge>
    <edge id=":center_4" function="internal">
        <lane id=":center_4_0" index="0" speed="3.65" length="1.44" shape="78.40,90.40 79.20,89.20"/>
    </edge>
    <edge id=":center_20" function="internal">
        <lane id=":center_20_0" index="0" speed="9.26" length="14.34" shape="79.11,85.44 79.15,85.15 81.40,81.40 85.15,79.15 90.40,78.40"/>
    </edge>
    <edge id=":center_21" function="internal">
        <lane id=":center_21_0" index="0" speed="3.65" length="3.23" shape="79.20,89.20 80.00,88.80 80.80,89.20 81.60,90.40"/>
    </edge>
    <edge id=":center_5" function="internal">
        <lane id=":center_5_0" index="0" speed="6.51" length="9.03" shape="90.40,84.80 87.95,85.15 86.20,86.20 85.15,87.95 84.80,90.40"/>
    </edge>
    <edge id=":center_6" function="internal">
        <lane id=":center_6_0" index="0" speed="13.89" length="20.80" shape="90.40,84.80 69.60,84.80"/>
        <lane id=":center_6_1" index="1" speed="13.89" length="20.80" shape="90.40,81.60 69.60,81.60"/>
    </edge>
    <edge id=":center_8" function="internal">
        <lane id=":center_8_0" index="0" speed="9.26" length="5.01" shape="90.40,81.60 85.44,80.89"/>
    </edge>
    <edge id=":center_9" function="internal">
        <lane id=":center_9_0" index="0" speed="3.65" length="1.44" shape="90.40,81.60 89.20,80.80"/>
    </edge>
    <edge id=":center_22" function="internal">
        <lane id=":center_22_0" index="0" speed="9.26" length="14.34" shape="85.44,80.89 85.15,80.85 81.40,78.60 79.15,74.85 78.40,69.60"/>
    </edge>
    <edge id=":center_23" function="internal">
        <lane id=":center_23_0" index="0" speed="3.65" length="3.23" shape="89.20,80.80 88.80,80.00 89.20,79.20 90.40,78.40"/>
    </edge>
    <edge id=":center_10" function="internal">
        <lane id=":center_10_0" index="0" speed="6.51" length="9.03" shape="84.80,69.60 85.15,72.05 86.20,73.80 87.95,74.85 90.40,75.20"/>
    </edge>
    <edge id=":center_11" function="internal">
        <lane id=":center_11_0" index="0" speed="13.89" length="20.80" shape="84.80,69.60 84.80,90.40"/>
        <lane id=":center_11_1" index="1" speed="13.89" length="20.80" shape="81.60,69.60 81.60,90.40"/>
    </edge>
    <edge id=":center_13" function="internal">
        <lane id=":center_13_0" index="0" speed="9.26" length="5.01" shape="81.60,69.60 80.89,74.56"/>
    </edge>
    <edge id=":center_14" function="internal">
        <lane id=":center_14_0" index="0" speed="3.65" length="1.44" shape="81.60,69.60 80.80,70.80"/>
    </edge>
    <edge id=":center_24" function="internal">
        <lane id=":center_24_0" index="0" speed="9.26" length="14.34" shape="80.89,74.56 80.85,74.85 78.60,78.60 74.85,80.85 69.60,81.60"/>
    </edge>
    <edge id=":center_25" function="internal">
        <lane id=":center_25_0" index="0" speed="3.65" length="3.23" shape="80.80,70.80 80.00,71.20 79.20,70.80 78.40,69.60"/>
    </edge>
    <edge id=":center_15" function="internal">
        <lane id=":center_15_0" index="0" speed="6.51" length="9.03" shape="69.60,75.20 72.05,74.85 73.80,73.80 74.85,72.05 75.20,69.60"/>
    </edge>
    <edge id=":center_16" function="internal">
        <lane id=":center_16_0" index="0" speed="13.89" length="20.80" shape="69.60,75.20 90.40,75.20"/>
        <lane id=":center_16_1" index="1" speed="13.89" length="20.80" shape="69.60,78.40 90.40,78.40"/>
    </edge>
    <edge id=":center_18" function="internal">
        <lane id=":center_18_0" index="0" speed="9.26" length="5.01" shape="69.60,78.40 74.56,79.11"/>
    </edge>
    <edge id=":center_19" function="internal">
        <lane id=":center_19_0" index="0" speed="3.65" length="1.44" shape="69.60,78.40 70.80,79.20"/>
    </edge>
    <edge id=":center_26" function="internal">
        <lane id=":center_26_0" index="0" speed="9.26" length="14.34" shape="74.56,79.11 74.85,79.15 78.60,81.40 80.85,85.15 81.60,90.40"/>
    </edge>
    <edge id=":center_27" function="internal">
        <lane id=":center_27_0" index="0" speed="3.65" length="3.23" shape="70.80,79.20 71.20,80.00 70.80,80.80 69.60,81.60"/>
    </edge>
    <edge id=":east_0" function="internal">
        <lane id=":east_0_0" index="0" speed="3.65" length="4.67" shape="160.00,78.40 161.20,79.20 161.60,80.00 161.20,80.80 160.00,81.60"/>
    </edge>
    <edge id=":north_0" function="internal">
        <lane id=":north_0_0" index="0" speed="3.65" length="4.67" shape="81.60,160.00 80.80,161.20 80.00,161.60 79.20,161.20 78.40,160.00"/>
    </edge>
    <edge id=":south_0" function="internal">
        <lane id=":south_0_0" index="0" speed="3.65" length="4.67" shape="78.40,0.00 79.20,-1.20 80.00,-1.60 80.80,-1.20 81.60,0.00"/>
    </edge>
    <edge id=":west_0" function="internal">
        <lane id=":west_0_0" index="0" speed="3.65" length="4.67" shape="0.00,81.60 -1.20,80.80 -1.60,80.00 -1.20,79.20 0.00,78.40"/>
    </edge>

    <edge id="east_in" from="east" to="center" priority="-1">
        <lane id="east_in_0" index="0" speed="13.89" length="69.60" shape="160.00,84.80 90.40,84.80"/>
        <lane id="east_in_1" index="1" speed="13.89" length="69.60" shape="160.00,81.60 90.40,81.60"/>
    </edge>
    <edge id="east_out" from="center" to="east" priority="-1">
        <lane id="east_out_0" index="0" speed="13.89" length="69.60" shape="90.40,75.20 160.00,75.20"/>
        <lane id="east_out_1" index="1" speed="13.89" length="69.60" shape="90.40,78.40 160.00,78.40"/>
    </edge>
    <edge id="north_in" from="north" to="center" priority="-1">
        <lane id="north_in_0" index="0" speed="13.89" length="69.60" shape="75.20,160.00 75.20,90.40"/>
        <lane id="north_in_1" index="1" speed="13.89" length="69.60" shape="78.40,160.00 78.40,90.40"/>
    </edge>
    <edge id="north_out" from="center" to="north" priority="-1">
        <lane id="north_out_0" index="0" speed="13.89" length="69.60" shape="84.80,90.40 84.80,160.00"/>
        <lane id="north_out_1" index="1" speed="13.89" length="69.60" shape="81.60,90.40 81.60,160.00"/>
    </edge>
    <edge id="south_in" from="south" to="center" priority="-1">
        <lane id="south_in_0" index="0" speed="13.89" length="69.60" shape="84.80,0.00 84.80,69.60"/>
        <lane id="south_in_1" index="1" speed="13.89" length="69.60" shape="81.60,0.00 81.60,69.60"/>
    </edge>
    <edge id="south_out" from="center" to="south" priority="-1">
        <lane id="south_out_0" index="0" speed="13.89" length="69.60" shape="75.20,69.60 75.20,0.00"/>
        <lane id="south_out_1" index="1" speed="13.89" length="69.60" shape="78.40,69.60 78.40,0.00"/>
    </edge>
    <edge id="west_in" from="west" to="center" priority="-1">
        <lane id="west_in_0" index="0" speed="13.89" length="69.60" shape="0.00,75.20 69.60,75.20"/>
        <lane id="west_in_1" index="1" speed="13.89" length="69.60" shape="0.00,78.40 69.60,78.40"/>
    </edge>
    <edge id="west_out" from="center" to="west" priority="-1">
        <lane id="west_out_0" index="0" speed="13.89" length="69.60" shape="69.60,84.80 0.00,84.80"/>
        <lane id="west_out_1" index="1" speed="13.89" length="69.60" shape="69.60,81.60 0.00,81.60"/>
    </edge>

    <tlLogic id="center" type="static" programID="0" offset="0">
        <phase duration="42" state="GGGggrrrrrGGGggrrrrr"/>
        <phase duration="3"  state="yyyyyrrrrryyyyyrrrrr"/>
        <phase duration="42" state="rrrrrGGGggrrrrrGGGgg"/>
        <phase duration="3"  state="rrrrryyyyyrrrrryyyyy"/>
    </tlLogic>

    <junction id="center" type="traffic_light" x="80.00" y="80.00" incLanes="north_in_0 north_in_1 east_in_0 east_in_1 south_in_0 south_in_1 west_in_0 west_in_1" intLanes=":center_0_0 :center_1_0 :center_1_1 :center_20_0 :center_21_0 :center_5_0 :center_6_0 :center_6_1 :center_22_0 :center_23_0 :center_10_0 :center_11_0 :center_11_1 :center_24_0 :center_25_0 :center_15_0 :center_16_0 :center_16_1 :center_26_0 :center_27_0" shape="73.60,90.40 86.40,90.40 86.84,88.18 87.40,87.40 88.18,86.84 89.18,86.51 90.40,86.40 90.40,73.60 88.18,73.16 87.40,72.60 86.84,71.82 86.51,70.82 86.40,69.60 73.60,69.60 73.16,71.82 72.60,72.60 71.82,73.16 70.82,73.49 69.60,73.60 69.60,86.40 71.82,86.84 72.60,87.40 73.16,88.18 73.49,89.18">
        <request index="0"  response="00000000000000000000" foes="00000000000011000000" cont="0"/>
        <request index="1"  response="01000000000000000000" foes="01111110000111000000" cont="0"/>
        <request index="2"  response="01000000000100000000" foes="01111110000111000000" cont="0"/>
        <request index="3"  response="01000001100100000000" foes="01110001101111000000" cont="1"/>
        <request index="4"  response="01000001100000000000" foes="01000001100000000000" cont="1"/>
        <request index="5"  response="00000001100000000000" foes="00000001100000000000" cont="0"/>
        <request index="6"  response="00000011100000001111" foes="11000011100000001111" cont="0"/>
        <request index="7"  response="00000011100000001111" foes="11000011100000001111" cont="0"/>
        <request index="8"  response="00110011100000001110" foes="00110111100000001110" cont="1"/>
        <request index="9"  response="00110000000000001000" foes="00110000000000001000" cont="1"/>
        <request index="10" response="00000000000000000000" foes="00110000000000000000" cont="0"/>
        <request index="11" response="00000000000100000000" foes="01110000000111111000" cont="0"/>
        <request index="12" response="01000000000100000000" foes="01110000000111111000" cont="0"/>
        <request index="13" response="01000000000100000110" foes="11110000000111000110" cont="1"/>
        <request index="14" response="00000000000100000110" foes="00000000000100000110" cont="1"/>
        <request index="15" response="00000000000000000110" foes="00000000000000000110" cont="0"/>
        <request index="16" response="00000011110000001110" foes="00000011111100001110" cont="0"/>
        <request index="17" response="00000011110000001110" foes="00000011111100001110" cont="0"/>
        <request index="18" response="00000011100011001110" foes="00000011100011011110" cont="1"/>
        <request index="19" response="00000010000011000000" foes="00000010000011000000" cont="1"/>
    </junction>
    <junction id="east" type="priority" x="160.00" y="80.00" incLanes="east_out_0 east_out_1" intLanes=":east_0_0" shape="160.00,80.00 160.00,73.60 160.00,80.00">
        <request index="0" response="0" foes="0" cont="0"/>
    </junction>
    <junction id="north" type="priority" x="80.00" y="160.00" incLanes="north_out_0 north_out_1" intLanes=":north_0_0" shape="80.00,160.00 86.40,160.00 80.00,160.00">
        <request index="0" response="0" foes="0" cont="0"/>
    </junction>
    <junction id="south" type="priority" x="80.00" y="0.00" incLanes="south_out_0 south_out_1" intLanes=":south_0_0" shape="80.00,0.00 73.60,0.00 80.00,0.00">
        <request index="0" response="0" foes="0" cont="0"/>
    </junction>
    <junction id="west" type="priority" x="0.00" y="80.00" incLanes="west_out_0 west_out_1" intLanes=":west_0_0" shape="0.00,80.00 0.00,86.40 0.00,80.00">
        <request index="0" response="0" foes="0" cont="0"/>
    </junction>

    <junction id=":center_20_0" type="internal" x="79.11" y="85.44" incLanes=":center_3_0 south_in_0 south_in_1" intLanes=":center_6_0 :center_6_1 :center_8_0 :center_9_0 :center_10_0 :center_11_0 :center_11_1 :center_16_0 :center_16_1 :center_18_0"/>
    <junction id=":center_21_0" type="internal" x="79.20" y="89.20" incLanes=":center_4_0 east_in_0 south_in_0 south_in_1 west_in_1" intLanes=":center_5_0 :center_11_0 :center_11_1 :center_18_0"/>
    <junction id=":center_22_0" type="internal" x="85.44" y="80.89" incLanes=":center_8_0 west_in_0 west_in_1" intLanes=":center_1_0 :center_1_1 :center_3_0 :center_11_0 :center_11_1 :center_13_0 :center_14_0 :center_15_0 :center_16_0 :center_16_1"/>
    <junction id=":center_23_0" type="internal" x="89.20" y="80.80" incLanes=":center_9_0 north_in_1 south_in_0 west_in_0 west_in_1" intLanes=":center_3_0 :center_10_0 :center_16_0 :center_16_1"/>
    <junction id=":center_24_0" type="internal" x="80.89" y="74.56" incLanes=":center_13_0 north_in_0 north_in_1" intLanes=":center_0_0 :center_1_0 :center_1_1 :center_6_0 :center_6_1 :center_8_0 :center_16_0 :center_16_1 :center_18_0 :center_19_0"/>
    <junction id=":center_25_0" type="internal" x="80.80" y="70.80" incLanes=":center_14_0 east_in_1 north_in_0 north_in_1 west_in_0" intLanes=":center_1_0 :center_1_1 :center_8_0 :center_15_0"/>
    <junction id=":center_26_0" type="internal" x="74.56" y="79.11" incLanes=":center_18_0 east_in_0 east_in_1" intLanes=":center_1_0 :center_1_1 :center_3_0 :center_4_0 :center_5_0 :center_6_0 :center_6_1 :center_11_0 :center_11_1 :center_13_0"/>
    <junction id=":center_27_0" type="internal" x="70.80" y="79.20" incLanes=":center_19_0 east_in_0 east_in_1 north_in_0 south_in_1" intLanes=":center_0_0 :center_6_0 :center_6_1 :center_13_0"/>

    <connection from="east_in" to="north_out" fromLane="0" toLane="0" via=":center_5_0" tl="center" linkIndex="5" dir="r" state="o"/>
    <connection from="east_in" to="west_out" fromLane="0" toLane="0" via=":center_6_0" tl="center" linkIndex="6" dir="s" state="o"/>
    <connection from="east_in" to="west_out" fromLane="1" toLane="1" via=":center_6_1" tl="center" linkIndex="7" dir="s" state="o"/>
    <connection from="east_in" to="south_out" fromLane="1" toLane="1" via=":center_8_0" tl="center" linkIndex="8" dir="l" state="o"/>
    <connection from="east_in" to="east_out" fromLane="1" toLane="1" via=":center_9_0" tl="center" linkIndex="9" dir="t" state="o"/>
    <connection from="east_out" to="east_in" fromLane="1" toLane="1" via=":east_0_0" dir="t" state="M"/>
    <connection from="north_in" to="west_out" fromLane="0" toLane="0" via=":center_0_0" tl="center" linkIndex="0" dir="r" state="O"/>
    <connection from="north_in" to="south_out" fromLane="0" toLane="0" via=":center_1_0" tl="center" linkIndex="1" dir="s" state="O"/>
    <connection from="north_in" to="south_out" fromLane="1" toLane="1" via=":center_1_1" tl="center" linkIndex="2" dir="s" state="O"/>
    <connection from="north_in" to="east_out" fromLane="1" toLane="1" via=":center_3_0" tl="center" linkIndex="3" dir="l" state="o"/>
    <connection from="north_in" to="north_out" fromLane="1" toLane="1" via=":center_4_0" tl="center" linkIndex="4" dir="t" state="o"/>
    <connection from="north_out" to="north_in" fromLane="1" toLane="1" via=":north_0_0" dir="t" state="M"/>
    <connection from="south_in" to="east_out" fromLane="0" toLane="0" via=":center_10_0" tl="center" linkIndex="10" dir="r" state="O"/>
    <connection from="south_in" to="north_out" fromLane="0" toLane="0" via=":center_11_0" tl="center" linkIndex="11" dir="s" state="O"/>
    <connection from="south_in" to="north_out" fromLane="1" toLane="1" via=":center_11_1" tl="center" linkIndex="12" dir="s" state="O"/>
    <connection from="south_in" to="west_out" fromLane="1" toLane="1" via=":center_13_0" tl="center" linkIndex="13" dir="l" state="o"/>
    <connection from="south_in" to="south_out" fromLane="1" toLane="1" via=":center_14_0" tl="center" linkIndex="14" dir="t" state="o"/>
    <connection from="south_out" to="south_in" fromLane="1" toLane="1" via=":south_0_0" dir="t" state="M"/>
    <connection from="west_in" to="south_out" fromLane="0" toLane="0" via=":center_15_0" tl="center" linkIndex="15" dir="r" state="o"/>
    <connection from="west_in" to="east_out" fromLane="0" toLane="0" via=":center_16_0" tl="center" linkIndex="16" dir="s" state="o"/>
    <connection from="west_in" to="east_out" fromLane="1" toLane="1" via=":center_16_1" tl="center" linkIndex="17" dir="s" state="o"/>
    <connection from="west_in" to="north_out" fromLane="1" toLane="1" via=":center_18_0" tl="center" linkIndex="18" dir="l" state="o"/>
    <connection from="west_in" to="west_out" fromLane="1" toLane="1" via=":center_19_0" tl="center" linkIndex="19" dir="t" state="o"/>
    <connection from="west_out" to="west_in" fromLane="1" toLane="1" via=":west_0_0" dir="t" state="M"/>

    <connection from=":center_0" to="west_out" fromLane="0" toLane="0" dir="r" state="M"/>
    <connection from=":center_1" to="south_out" fromLane="0" toLane="0" dir="s" state="M"/>
    <connection from=":center_1" to="south_out" fromLane="1" toLane="1" dir="s" state="M"/>
    <connection from=":center_3" to="east_out" fromLane="0" toLane="1" via=":center_20_0" dir="l" state="m"/>
    <connection from=":center_20" to="east_out" fromLane="0" toLane="1" dir="l" state="M"/>
    <connection from=":center_4" to="north_out" fromLane="0" toLane="1" via=":center_21_0" dir="t" state="m"/>
    <connection from=":center_21" to="north_out" fromLane="0" toLane="1" dir="t" state="M"/>
    <connection from=":center_5" to="north_out" fromLane="0" toLane="0" dir="r" state="M"/>
    <connection from=":center_6" to="west_out" fromLane="0" toLane="0" dir="s" state="M"/>
    <connection from=":center_6" to="west_out" fromLane="1" toLane="1" dir="s" state="M"/>
    <connection from=":center_8" to="south_out" fromLane="0" toLane="1" via=":center_22_0" dir="l" state="m"/>
    <connection from=":center_22" to="south_out" fromLane="0" toLane="1" dir="l" state="M"/>
    <connection from=":center_9" to="east_out" fromLane="0" toLane="1" via=":center_23_0" dir="t" state="m"/>
    <connection from=":center_23" to="east_out" fromLane="0" toLane="1" dir="t" state="M"/>
    <connection from=":center_10" to="east_out" fromLane="0" toLane="0" dir="r" state="M"/>
    <connection from=":center_11" to="north_out" fromLane="0" toLane="0" dir="s" state="M"/>
    <connection from=":center_11" to="north_out" fromLane="1" toLane="1" dir="s" state="M"/>
    <connection from=":center_13" to="west_out" fromLane="0" toLane="1" via=":center_24_0" dir="l" state="m"/>
    <connection from=":center_24" to="west_out" fromLane="0" toLane="1" dir="l" state="M"/>
    <connection from=":center_14" to="south_out" fromLane="0" toLane="1" via=":center_25_0" dir="t" state="m"/>
    <connection from=":center_25" to="south_out" fromLane="0" toLane="1" dir="t" state="M"/>
    <connection from=":center_15" to="south_out" fromLane="0" toLane="0" dir="r" state="M"/>
    <connection from=":center_16" to="east_out" fromLane="0" toLane="0" dir="s" state="M"/>
    <connection from=":center_16" to="east_out" fromLane="1" toLane="1" dir="s" state="M"/>
    <connection from=":center_18" to="north_out" fromLane="0" toLane="1" via=":center_26_0" dir="l" state="m"/>
    <connection from=":center_26" to="north_out" fromLane="0" toLane="1" dir="l" state="M"/>
    <connection from=":center_19" to="west_out" fromLane="0" toLane="1" via=":center_27_0" dir="t" state="m"/>
    <connection from=":center_27" to="west_out" fromLane="0" toLane="1" dir="t" state="M"/>
    <connection from=":east_0" to="east_in" fromLane="0" toLane="1" dir="t" state="M"/>
    <connection from=":north_0" to="north_in" fromLane="0" toLane="1" dir="t" state="M"/>
    <connection from=":south_0" to="south_in" fromLane="0" toLane="1" dir="t" state="M"/>
    <connection from=":west_0" to="west_in" fromLane="0" toLane="1" dir="t" state="M"/>

</net>
