<additional>
<tlLogic id="center" type="static" programID="fixed" offset="0">
<phase duration="25" state="GGGggrrrrrGGGggrrrrr"/>
<phase duration="3" state="yyyyyrrrrryyyyyrrrrr"/>
<phase duration="25" state="rrrrrGGGggrrrrrGGGgg"/>
<phase duration="3" state="rrrrryyyyyrrrrryyyyy"/>
</tlLogic>
</additional>